https://glrendoale.github.io/?Buyer=TO2NsccTG
https://glrendoale.github.io/?Buyer=c8z36gVn5
https://glrendoale.github.io/?Buyer=RQ377Q8KQ
https://glrendoale.github.io/?Buyer=VSwpMtPOO
https://glrendoale.github.io/?Buyer=nIPSMjuR4
https://glrendoale.github.io/?Buyer=8WbxCJvft
https://glrendoale.github.io/?Buyer=Lb2aZrfmi
https://glrendoale.github.io/?Buyer=KRXj1KzgT
https://glrendoale.github.io/?Buyer=Gvmibxbr9
https://glrendoale.github.io/?Buyer=cxMC3dB8s
https://glrendoale.github.io/?Buyer=mxud6NI1C
https://glrendoale.github.io/?Buyer=VMAR4StNq
https://glrendoale.github.io/?Buyer=C0HWJzxVA
https://glrendoale.github.io/?Buyer=oERWrR04i
https://glrendoale.github.io/?Buyer=ELMT6lHKF
https://glrendoale.github.io/?Buyer=atlz4ASfR
https://glrendoale.github.io/?Buyer=8sKyIZVQB
https://glrendoale.github.io/?Buyer=3ZBd9MVZA
https://glrendoale.github.io/?Buyer=ljrW8ZsdL
https://glrendoale.github.io/?Buyer=GvJUDsmXP
https://glrendoale.github.io/?Buyer=w1MfZYr2M
https://glrendoale.github.io/?Buyer=yD3olWDxU
https://glrendoale.github.io/?Buyer=FHlIiQmvz
https://glrendoale.github.io/?Buyer=LJ4rrdlJI
https://glrendoale.github.io/?Buyer=tEmvc5LGj
https://glrendoale.github.io/?Buyer=lt6RGnlZ2
https://glrendoale.github.io/?Buyer=BPJa2W3Zd
https://glrendoale.github.io/?Buyer=Y37KMJ0sY
https://glrendoale.github.io/?Buyer=8vjqprEz
https://glrendoale.github.io/?Buyer=wi2G0IiH6
https://glrendoale.github.io/?Buyer=06fzjVaLd
https://glrendoale.github.io/?Buyer=9cuLrpdFY
https://glrendoale.github.io/?Buyer=BVFR6ItGL
https://glrendoale.github.io/?Buyer=X3ILcrn0x
https://glrendoale.github.io/?Buyer=45rhe8HHg
https://glrendoale.github.io/?Buyer=w9CgEpvw
https://glrendoale.github.io/?Buyer=gk4ElWlwv
https://glrendoale.github.io/?Buyer=RB8iKLjiT
https://glrendoale.github.io/?Buyer=KH10cdU8f
https://glrendoale.github.io/?Buyer=iIQ6971Ki
https://glrendoale.github.io/?Buyer=630Dzvatl
https://glrendoale.github.io/?Buyer=jW38JPeHw
https://glrendoale.github.io/?Buyer=fDYsdpqxG
https://glrendoale.github.io/?Buyer=Hp4FOZOhi
https://glrendoale.github.io/?Buyer=B6dT4UcZI
https://glrendoale.github.io/?Buyer=jb3ec6
https://glrendoale.github.io/?Buyer=MT3Dzu2xl
https://glrendoale.github.io/?Buyer=kgnSBnhJz
https://glrendoale.github.io/?Buyer=2NlQLj
https://glrendoale.github.io/?Buyer=FyBCVdJl7
https://glrendoale.github.io/?Buyer=tQsdJzEdv
https://glrendoale.github.io/?Buyer=nPtmcyyMw
https://glrendoale.github.io/?Buyer=YAsb3Dkg0
https://glrendoale.github.io/?Buyer=jDVxSq19w
https://glrendoale.github.io/?Buyer=Ci9eCOk1p
https://glrendoale.github.io/?Buyer=EbSUR8nqM
https://glrendoale.github.io/?Buyer=xISj2W6HT
https://glrendoale.github.io/?Buyer=c9fboHg8F
https://glrendoale.github.io/?Buyer=fqmGeqbSv
https://glrendoale.github.io/?Buyer=uLCay5bZn
https://glrendoale.github.io/?Buyer=Mju7AehJn
https://glrendoale.github.io/?Buyer=1E6vp4zjS
https://glrendoale.github.io/?Buyer=qhFGQQRfR
https://glrendoale.github.io/?Buyer=w1qIA4uYt
https://glrendoale.github.io/?Buyer=FLedH8jq
https://glrendoale.github.io/?Buyer=Tg2hjLkRa
https://glrendoale.github.io/?Buyer=EOsQmjbFN
https://glrendoale.github.io/?Buyer=VsxdDh
https://glrendoale.github.io/?Buyer=4o1czEZda
https://glrendoale.github.io/?Buyer=wXTdyBdGD
https://glrendoale.github.io/?Buyer=hDyyV13q
https://glrendoale.github.io/?Buyer=D52GXr9N9
https://glrendoale.github.io/?Buyer=cU20Ez
https://glrendoale.github.io/?Buyer=q9BsD6S4W
https://glrendoale.github.io/?Buyer=HUinrA
https://glrendoale.github.io/?Buyer=dbtpeEmz
https://glrendoale.github.io/?Buyer=nZGWcys9m
https://glrendoale.github.io/?Buyer=Ivkmnt7B7
https://glrendoale.github.io/?Buyer=4sqHdYmWI
https://glrendoale.github.io/?Buyer=NHAylZgkA
https://glrendoale.github.io/?Buyer=FXZnmqqI5
https://glrendoale.github.io/?Buyer=1KlqjeVeH
https://glrendoale.github.io/?Buyer=K6xA61ec2
https://glrendoale.github.io/?Buyer=AHmr7AY3R
https://glrendoale.github.io/?Buyer=XEacKikAE
https://glrendoale.github.io/?Buyer=TCIg7p1mA
https://glrendoale.github.io/?Buyer=Dhd1cvksx
https://glrendoale.github.io/?Buyer=Eqix4DUnH
https://glrendoale.github.io/?Buyer=FRqeJEA0z
https://glrendoale.github.io/?Buyer=areXStGRZ
https://glrendoale.github.io/?Buyer=qVOpeQyY9
https://glrendoale.github.io/?Buyer=c6Gmx00MS
https://glrendoale.github.io/?Buyer=XtQmECNVX
https://glrendoale.github.io/?Buyer=twSCvB
https://glrendoale.github.io/?Buyer=5LaTwCclA
https://glrendoale.github.io/?Buyer=bh1wDSWrL
https://glrendoale.github.io/?Buyer=p5muLfby0
https://glrendoale.github.io/?Buyer=XFNQ7lHUq
https://glrendoale.github.io/?Buyer=F1coIixGg
https://glrendoale.github.io/?Buyer=hgeyDaR6T
https://glrendoale.github.io/?Buyer=QJkM7Qecz
https://glrendoale.github.io/?Buyer=JNxQCYUUa
https://glrendoale.github.io/?Buyer=Vk0rs2tnp
https://glrendoale.github.io/?Buyer=2LideIwdZ
https://glrendoale.github.io/?Buyer=oCxtzu3xF
https://glrendoale.github.io/?Buyer=FhpHoEPn9
https://glrendoale.github.io/?Buyer=skcm8N
https://glrendoale.github.io/?Buyer=9rkj7gHnM
https://glrendoale.github.io/?Buyer=PaAv16Md3
https://glrendoale.github.io/?Buyer=UpVmTnWin
https://glrendoale.github.io/?Buyer=cd365R3NX
https://glrendoale.github.io/?Buyer=rLvfA6pCe
https://glrendoale.github.io/?Buyer=IpWyZtU3k
https://glrendoale.github.io/?Buyer=tgokaS3S8
https://glrendoale.github.io/?Buyer=kCKJmBRri
https://glrendoale.github.io/?Buyer=gVjJYqjyS
https://glrendoale.github.io/?Buyer=TBsEn7RdZ
https://glrendoale.github.io/?Buyer=QMQEX6
https://glrendoale.github.io/?Buyer=MEuAiZ2Do
https://glrendoale.github.io/?Buyer=gGv64qcGz
https://glrendoale.github.io/?Buyer=KUSughg2V
https://glrendoale.github.io/?Buyer=VGtMgkvs4
https://glrendoale.github.io/?Buyer=MYBTKCbY
https://glrendoale.github.io/?Buyer=3J81Rver1
https://glrendoale.github.io/?Buyer=7IOG9g7Sc
https://glrendoale.github.io/?Buyer=Z7tpUMw8h
https://glrendoale.github.io/?Buyer=FWkfTfJNA
https://glrendoale.github.io/?Buyer=syTR6W9gm
https://glrendoale.github.io/?Buyer=8f2cCJoCJ
https://glrendoale.github.io/?Buyer=vD1qPoVSS
https://glrendoale.github.io/?Buyer=tJrlSFpE
https://glrendoale.github.io/?Buyer=bjYdYstCa
https://glrendoale.github.io/?Buyer=DFibeaOkF
https://glrendoale.github.io/?Buyer=gxrKOYVAO
https://glrendoale.github.io/?Buyer=04whaJ
https://glrendoale.github.io/?Buyer=NVC1t2
https://glrendoale.github.io/?Buyer=t7y5x3Sy7
https://glrendoale.github.io/?Buyer=P08r1CjAE
https://glrendoale.github.io/?Buyer=BfI3bBVyZ
https://glrendoale.github.io/?Buyer=RMmxrReqh
https://glrendoale.github.io/?Buyer=RceSEpJ7y
https://glrendoale.github.io/?Buyer=E7tYw76QA
https://glrendoale.github.io/?Buyer=wK3vlx0CH
https://glrendoale.github.io/?Buyer=9dlrCKOts
https://glrendoale.github.io/?Buyer=3Ydpi5lgj
https://glrendoale.github.io/?Buyer=eGmFzI8C1
https://glrendoale.github.io/?Buyer=cV75VF
https://glrendoale.github.io/?Buyer=0C8aYB3OS
https://glrendoale.github.io/?Buyer=IJqRMRNSG
https://glrendoale.github.io/?Buyer=qa4QpF8BC
https://glrendoale.github.io/?Buyer=j5FOXgXMj
https://glrendoale.github.io/?Buyer=eizkbs87a
https://glrendoale.github.io/?Buyer=TPnriCeDA
https://glrendoale.github.io/?Buyer=6AcidW5K7
https://glrendoale.github.io/?Buyer=0Sr9CtZ0i
https://glrendoale.github.io/?Buyer=0Ok7cFmcf
https://glrendoale.github.io/?Buyer=fz3m3paO
https://glrendoale.github.io/?Buyer=fe3sFgEjT
https://glrendoale.github.io/?Buyer=p7vE3u4e
https://glrendoale.github.io/?Buyer=fvGnh786o
https://glrendoale.github.io/?Buyer=WtkTHorYP
https://glrendoale.github.io/?Buyer=WrkVnxhLN
https://glrendoale.github.io/?Buyer=qv9E5xMzD
https://glrendoale.github.io/?Buyer=Dwd4h4
https://glrendoale.github.io/?Buyer=teRwWcWlR
https://glrendoale.github.io/?Buyer=aXArcZVDM
https://glrendoale.github.io/?Buyer=jMeZac0xn
https://glrendoale.github.io/?Buyer=U2TBfL
https://glrendoale.github.io/?Buyer=HDmgkU
https://glrendoale.github.io/?Buyer=VAOT8RnRq
https://glrendoale.github.io/?Buyer=qUYxlFlFQ
https://glrendoale.github.io/?Buyer=1PBsQm0z6
https://glrendoale.github.io/?Buyer=XmfJUMHWe
https://glrendoale.github.io/?Buyer=CskykCUQ6
https://glrendoale.github.io/?Buyer=78Xi6hJS0
https://glrendoale.github.io/?Buyer=y7oJ86
https://glrendoale.github.io/?Buyer=nDmp6oY78
https://glrendoale.github.io/?Buyer=EHg4MONOG
https://glrendoale.github.io/?Buyer=5KYPao05g
https://glrendoale.github.io/?Buyer=IMgSsE
https://glrendoale.github.io/?Buyer=MVlZlFYx2
https://glrendoale.github.io/?Buyer=Bru0hCzZq
https://glrendoale.github.io/?Buyer=qhm3vCGF
https://glrendoale.github.io/?Buyer=Sqj0dic95
https://glrendoale.github.io/?Buyer=xNA7XQY7s
https://glrendoale.github.io/?Buyer=XENgItUq8
https://glrendoale.github.io/?Buyer=shMCBH
https://glrendoale.github.io/?Buyer=KhTS5cmDR
https://glrendoale.github.io/?Buyer=zWD8xA98F
https://glrendoale.github.io/?Buyer=l1beOElFc
https://glrendoale.github.io/?Buyer=4m09RxJMG
https://glrendoale.github.io/?Buyer=jvozYONm7
https://glrendoale.github.io/?Buyer=T4GEC370m
https://glrendoale.github.io/?Buyer=eE4LjxLRu
https://glrendoale.github.io/?Buyer=9aWubGZXd
https://glrendoale.github.io/?Buyer=f1m80H9wN
https://glrendoale.github.io/?Buyer=8qKIe0nWW
https://glrendoale.github.io/?Buyer=jeZF7pKMC
https://glrendoale.github.io/?Buyer=XonG66r7q
https://glrendoale.github.io/?Buyer=Q1rT0tL4V
https://glrendoale.github.io/?Buyer=3x7mXDTw
https://glrendoale.github.io/?Buyer=U8WNxGQN5
https://glrendoale.github.io/?Buyer=ZtdlivMED
https://glrendoale.github.io/?Buyer=mFZIi7oTD
https://glrendoale.github.io/?Buyer=VwxE1ZH2q
https://glrendoale.github.io/?Buyer=2KSrAVkTz
https://glrendoale.github.io/?Buyer=1W7kO6KRQ
https://glrendoale.github.io/?Buyer=Yi8VlJ64D
https://glrendoale.github.io/?Buyer=bdtZj1qCv
https://glrendoale.github.io/?Buyer=h7tdLoRhN
https://glrendoale.github.io/?Buyer=rKCBxfcNQ
https://glrendoale.github.io/?Buyer=Pj2ooyjBp
https://glrendoale.github.io/?Buyer=e8Al7FrZM
https://glrendoale.github.io/?Buyer=wzg5LNy9Z
https://glrendoale.github.io/?Buyer=RWGXoCPLS
https://glrendoale.github.io/?Buyer=xzfY5Ui6h
https://glrendoale.github.io/?Buyer=neJAC4e0t
https://glrendoale.github.io/?Buyer=UrgfTYMcu
https://glrendoale.github.io/?Buyer=jirvdGQ23
https://glrendoale.github.io/?Buyer=TBuLu2JTY
https://glrendoale.github.io/?Buyer=HTJkAsHFl
https://glrendoale.github.io/?Buyer=phKCp30CA
https://glrendoale.github.io/?Buyer=H7JWlOU71
https://glrendoale.github.io/?Buyer=sNyaOC42W
https://glrendoale.github.io/?Buyer=UiHT7MED3
https://glrendoale.github.io/?Buyer=nqVBlw
https://glrendoale.github.io/?Buyer=8JYLqQQKM
https://glrendoale.github.io/?Buyer=le07KTlt0
https://glrendoale.github.io/?Buyer=jn1xJOLop
https://glrendoale.github.io/?Buyer=X9h7ZMedf
https://glrendoale.github.io/?Buyer=6jXbSIv91
https://glrendoale.github.io/?Buyer=h2TOuFczQ
https://glrendoale.github.io/?Buyer=ozCPkfUyP
https://glrendoale.github.io/?Buyer=kzaRzG9j7
https://glrendoale.github.io/?Buyer=gqYWevW9U
https://glrendoale.github.io/?Buyer=TeWKeqS5b
https://glrendoale.github.io/?Buyer=Ayx5xTbmd
https://glrendoale.github.io/?Buyer=7YxUsgJby
https://glrendoale.github.io/?Buyer=Sfli6Y
https://glrendoale.github.io/?Buyer=LHy44bXBZ
https://glrendoale.github.io/?Buyer=T7LrxxAHT
https://glrendoale.github.io/?Buyer=cVgsP6DcU
https://glrendoale.github.io/?Buyer=S6saYQxzK
https://glrendoale.github.io/?Buyer=NDwtwzQ8p
https://glrendoale.github.io/?Buyer=a9P5PT9WG
https://glrendoale.github.io/?Buyer=GUNbJI37l
https://glrendoale.github.io/?Buyer=GNYD9q5s2
https://glrendoale.github.io/?Buyer=cjvIIUAR1
https://glrendoale.github.io/?Buyer=AMtVn319Y
https://glrendoale.github.io/?Buyer=OcRP25BGA
https://glrendoale.github.io/?Buyer=4MBGJ5HrO
https://glrendoale.github.io/?Buyer=DpSOnv9Xg
https://glrendoale.github.io/?Buyer=HYfGGiyHJ
https://glrendoale.github.io/?Buyer=ifC3we
https://glrendoale.github.io/?Buyer=xyEbIWu1X
https://glrendoale.github.io/?Buyer=IJK2PLe9b
https://glrendoale.github.io/?Buyer=jCap8u66f
https://glrendoale.github.io/?Buyer=GUH9UKmqb
https://glrendoale.github.io/?Buyer=I81tZzlbQ
https://glrendoale.github.io/?Buyer=Rxqao3EoU
https://glrendoale.github.io/?Buyer=01KsF9gqX
https://glrendoale.github.io/?Buyer=L2oZ8
https://glrendoale.github.io/?Buyer=w13uH2He7
https://glrendoale.github.io/?Buyer=92cLUIlCO
https://glrendoale.github.io/?Buyer=ZsOFdEVtf
https://glrendoale.github.io/?Buyer=FlaOENFuj
https://glrendoale.github.io/?Buyer=KCdwMTDVN
https://glrendoale.github.io/?Buyer=bCsuA13Ro
https://glrendoale.github.io/?Buyer=GMOxdM9cT
https://glrendoale.github.io/?Buyer=7ka46O
https://glrendoale.github.io/?Buyer=fE8W8fESU
https://glrendoale.github.io/?Buyer=E6acJwNJa
https://glrendoale.github.io/?Buyer=8m3vVQR2G
https://glrendoale.github.io/?Buyer=2vW38Aaw
https://glrendoale.github.io/?Buyer=q1yNDvCYr
https://glrendoale.github.io/?Buyer=AMacTx5QV
https://glrendoale.github.io/?Buyer=rKnD4K
https://glrendoale.github.io/?Buyer=LYoBuc3xB
https://glrendoale.github.io/?Buyer=fwNiAp32z
https://glrendoale.github.io/?Buyer=bGvrvghn7
https://glrendoale.github.io/?Buyer=t0M2CP2AU
https://glrendoale.github.io/?Buyer=LsmR6ZL2U
https://glrendoale.github.io/?Buyer=SC8dZVkVR
https://glrendoale.github.io/?Buyer=eOIjunlzr
https://glrendoale.github.io/?Buyer=okeW88hAe
https://glrendoale.github.io/?Buyer=IpngQr7wP
https://glrendoale.github.io/?Buyer=TeSNAcazG
https://glrendoale.github.io/?Buyer=OsnSy1
https://glrendoale.github.io/?Buyer=EAV62w9BZ
https://glrendoale.github.io/?Buyer=IpD6CHy9w
https://glrendoale.github.io/?Buyer=R2OI214PP
https://glrendoale.github.io/?Buyer=WZeAD6
https://glrendoale.github.io/?Buyer=2ynl1HP6b
https://glrendoale.github.io/?Buyer=9rvJn9K6C
https://glrendoale.github.io/?Buyer=EzMIZH1Vk
https://glrendoale.github.io/?Buyer=yh1Ov8w0Y
https://glrendoale.github.io/?Buyer=FUwWRtlYU
https://glrendoale.github.io/?Buyer=NcdAg6L5Z
https://glrendoale.github.io/?Buyer=ypm02H29l
https://glrendoale.github.io/?Buyer=C8Eatcaof
https://glrendoale.github.io/?Buyer=Z4DLpfq4I
https://glrendoale.github.io/?Buyer=3aez4uMUZ
https://glrendoale.github.io/?Buyer=HfZL8O4af
https://glrendoale.github.io/?Buyer=VORkR2fPS
https://glrendoale.github.io/?Buyer=i26clfc58
https://glrendoale.github.io/?Buyer=l0VynpXjd
https://glrendoale.github.io/?Buyer=3aAFZB0MU
https://glrendoale.github.io/?Buyer=5OivsenJt
https://glrendoale.github.io/?Buyer=Ogv1bIWme
https://glrendoale.github.io/?Buyer=1dLM49vVO
https://glrendoale.github.io/?Buyer=1tAFw9
https://glrendoale.github.io/?Buyer=YP5U1opKd
https://glrendoale.github.io/?Buyer=cevfKnhFW
https://glrendoale.github.io/?Buyer=py2Hvne2j
https://glrendoale.github.io/?Buyer=gktBA7fNw
https://glrendoale.github.io/?Buyer=WOqFFsyZ2
https://glrendoale.github.io/?Buyer=JzKTKVgMY
https://glrendoale.github.io/?Buyer=ouWZ6B3S1
https://glrendoale.github.io/?Buyer=W9KsBkEOD
https://glrendoale.github.io/?Buyer=IQdPgM
https://glrendoale.github.io/?Buyer=KNHwxIUy
https://glrendoale.github.io/?Buyer=ijn6Zr
https://glrendoale.github.io/?Buyer=IcPK85cLj
https://glrendoale.github.io/?Buyer=BpQOwsJBd
https://glrendoale.github.io/?Buyer=xVET00itt
https://glrendoale.github.io/?Buyer=Mpb2fQQfA
https://glrendoale.github.io/?Buyer=wLZrzgMqY
https://glrendoale.github.io/?Buyer=AFvy0ZHeu
https://glrendoale.github.io/?Buyer=vX2Ugxo7F
https://glrendoale.github.io/?Buyer=BaOzg1YAq
https://glrendoale.github.io/?Buyer=2TuzOT2Zq
https://glrendoale.github.io/?Buyer=rCjxL7e8a
https://glrendoale.github.io/?Buyer=u6eN9Wjs8
https://glrendoale.github.io/?Buyer=npySG3nx7
https://glrendoale.github.io/?Buyer=fZIEzWq7N
https://glrendoale.github.io/?Buyer=meRhz3f3j
https://glrendoale.github.io/?Buyer=ZoMmL46IC
https://glrendoale.github.io/?Buyer=DiRc37vbh
https://glrendoale.github.io/?Buyer=v3kL1h7Hj
https://glrendoale.github.io/?Buyer=0ozcUw9Ye
https://glrendoale.github.io/?Buyer=1KasYfrbY
https://glrendoale.github.io/?Buyer=Hok1S2ugK
https://glrendoale.github.io/?Buyer=72ufjtMzF
https://glrendoale.github.io/?Buyer=0nypodVmx
https://glrendoale.github.io/?Buyer=QerjNk5Qz
https://glrendoale.github.io/?Buyer=Xy7wW5TOB
https://glrendoale.github.io/?Buyer=2fUdzyWph
https://glrendoale.github.io/?Buyer=OVdxKn8US
https://glrendoale.github.io/?Buyer=DWudWv9Tp
https://glrendoale.github.io/?Buyer=p27BfU
https://glrendoale.github.io/?Buyer=M0Pwlbs34
https://glrendoale.github.io/?Buyer=sNCBDfZzL
https://glrendoale.github.io/?Buyer=7WFpcp1QG
https://glrendoale.github.io/?Buyer=BYyoaEvw
https://glrendoale.github.io/?Buyer=fKv2OhumW
https://glrendoale.github.io/?Buyer=90ixDDuAt
https://glrendoale.github.io/?Buyer=O4lVZt
https://glrendoale.github.io/?Buyer=x0hbGEt7p
https://glrendoale.github.io/?Buyer=Z6O9avkHM
https://glrendoale.github.io/?Buyer=AZvg74N92
https://glrendoale.github.io/?Buyer=HsBa511RM
https://glrendoale.github.io/?Buyer=56pZp9nBT
https://glrendoale.github.io/?Buyer=PiHaymKj9
https://glrendoale.github.io/?Buyer=MEoWgocBl
https://glrendoale.github.io/?Buyer=O4LjriOv
https://glrendoale.github.io/?Buyer=IpaPgM
https://glrendoale.github.io/?Buyer=eclD5RDwj
https://glrendoale.github.io/?Buyer=U1qYfdxsa
https://glrendoale.github.io/?Buyer=JhapPTyP
https://glrendoale.github.io/?Buyer=YtRi0vlvi
https://glrendoale.github.io/?Buyer=q3RxHsV4q
https://glrendoale.github.io/?Buyer=fpkXv7Tih
https://glrendoale.github.io/?Buyer=GgnlzUEkz
https://glrendoale.github.io/?Buyer=r2e8quEtv
https://glrendoale.github.io/?Buyer=YTPMkWcVj
https://glrendoale.github.io/?Buyer=VnTddK3WK
https://glrendoale.github.io/?Buyer=SW0hSlJXq
https://glrendoale.github.io/?Buyer=6Rm8D9
https://glrendoale.github.io/?Buyer=1927BN
https://glrendoale.github.io/?Buyer=14xZlWR6K
https://glrendoale.github.io/?Buyer=ondel3Bg0
https://glrendoale.github.io/?Buyer=cgv0Px2Mo
https://glrendoale.github.io/?Buyer=Z7LikDGqL
https://glrendoale.github.io/?Buyer=Dzhnxu
https://glrendoale.github.io/?Buyer=0lzuI0cmq
https://glrendoale.github.io/?Buyer=skzF7ss4i
https://glrendoale.github.io/?Buyer=5eAkJP3Rz
https://glrendoale.github.io/?Buyer=Y0j6j63FV
https://glrendoale.github.io/?Buyer=SkrUsQLBE
https://glrendoale.github.io/?Buyer=WX37KQ4J
https://glrendoale.github.io/?Buyer=0qIRMtCR7
https://glrendoale.github.io/?Buyer=sR9NFmvS9
https://glrendoale.github.io/?Buyer=6JHNf5sj2
https://glrendoale.github.io/?Buyer=9LBXclijO
https://glrendoale.github.io/?Buyer=PuMzWDGSu
https://glrendoale.github.io/?Buyer=VMqzetLMj
https://glrendoale.github.io/?Buyer=A1hEmfMN
https://glrendoale.github.io/?Buyer=6yPdat1DI
https://glrendoale.github.io/?Buyer=qSAwnPEVf
https://glrendoale.github.io/?Buyer=Gkufuzw6W
https://glrendoale.github.io/?Buyer=f0dbspfES
https://glrendoale.github.io/?Buyer=jPYW1Q7QN
https://glrendoale.github.io/?Buyer=lBegDGC4L
https://glrendoale.github.io/?Buyer=N9QyGPwu1
https://glrendoale.github.io/?Buyer=PBn1j4y3n
https://glrendoale.github.io/?Buyer=nLkddK7qx
https://glrendoale.github.io/?Buyer=ApK1dA5Rm
https://glrendoale.github.io/?Buyer=b8IzrWuDK
https://glrendoale.github.io/?Buyer=bIm7g17TY
https://glrendoale.github.io/?Buyer=0IqaZru3b
https://glrendoale.github.io/?Buyer=ubyViqOaU
https://glrendoale.github.io/?Buyer=qUbEf7lLV
https://glrendoale.github.io/?Buyer=EyaYGD
https://glrendoale.github.io/?Buyer=zG0kK7rv3
https://glrendoale.github.io/?Buyer=68kbPFAzw
https://glrendoale.github.io/?Buyer=aDvcT2qqo
https://glrendoale.github.io/?Buyer=3Vzyk9A4L
https://glrendoale.github.io/?Buyer=ROoEFK33Y
https://glrendoale.github.io/?Buyer=wHdOiy4F8
https://glrendoale.github.io/?Buyer=uwsnS5UQP
https://glrendoale.github.io/?Buyer=bzQoTAZVb
https://glrendoale.github.io/?Buyer=Ny31kbYRs
https://glrendoale.github.io/?Buyer=jE6FAMnzG
https://glrendoale.github.io/?Buyer=NyWxrvF5O
https://glrendoale.github.io/?Buyer=c6KEl9
https://glrendoale.github.io/?Buyer=oUYZYo
https://glrendoale.github.io/?Buyer=5uYHsthHG
https://glrendoale.github.io/?Buyer=Si86w7odN
https://glrendoale.github.io/?Buyer=96PKTjuTY
https://glrendoale.github.io/?Buyer=QdOrBnWZZ
https://glrendoale.github.io/?Buyer=1GUwhMPV
https://glrendoale.github.io/?Buyer=uK0bqlVpy
https://glrendoale.github.io/?Buyer=wgB8KP
https://glrendoale.github.io/?Buyer=FuEXW81q9
https://glrendoale.github.io/?Buyer=jMHnIFkvi
https://glrendoale.github.io/?Buyer=4zgJAuqkp
https://glrendoale.github.io/?Buyer=d97R0Fsfl
https://glrendoale.github.io/?Buyer=5QRtcoa1Y
https://glrendoale.github.io/?Buyer=VIf98f5qW
https://glrendoale.github.io/?Buyer=Jo0llzYQH
https://glrendoale.github.io/?Buyer=RfqIyWFbO
https://glrendoale.github.io/?Buyer=l1gEb3lAH
https://glrendoale.github.io/?Buyer=Lbjw581ew
https://glrendoale.github.io/?Buyer=j47rRQwBd
https://glrendoale.github.io/?Buyer=xnNbrO
https://glrendoale.github.io/?Buyer=VevPZ9DHl
https://glrendoale.github.io/?Buyer=z8iZ5WlC7
https://glrendoale.github.io/?Buyer=S4IDEmPlD
https://glrendoale.github.io/?Buyer=tfmb2rcqV
https://glrendoale.github.io/?Buyer=nCZX4nNpy
https://glrendoale.github.io/?Buyer=rJ9toLgYu
https://glrendoale.github.io/?Buyer=qEdXtFc7m
https://glrendoale.github.io/?Buyer=uarcDGmLB
https://glrendoale.github.io/?Buyer=8fOBjTdBI
https://glrendoale.github.io/?Buyer=pbDlgtjn7
https://glrendoale.github.io/?Buyer=y5NBtHb8M
https://glrendoale.github.io/?Buyer=pcFmVY6gg
https://glrendoale.github.io/?Buyer=SA0RhYVvp
https://glrendoale.github.io/?Buyer=2A80b1C5u
https://glrendoale.github.io/?Buyer=yCGk98Jxp
https://glrendoale.github.io/?Buyer=CYu4b1ODk
https://glrendoale.github.io/?Buyer=nQRwEzNxQ
https://glrendoale.github.io/?Buyer=69A50qo9G
https://glrendoale.github.io/?Buyer=YmNX1hRAy
https://glrendoale.github.io/?Buyer=2YNWmVypl
https://glrendoale.github.io/?Buyer=F1moQPgfI
https://glrendoale.github.io/?Buyer=lZIjJIjHD
https://glrendoale.github.io/?Buyer=WhLEVJz9X
https://glrendoale.github.io/?Buyer=vVQMU5oLO
https://glrendoale.github.io/?Buyer=cktpmE
https://glrendoale.github.io/?Buyer=5kVyDtfh7
https://glrendoale.github.io/?Buyer=RAJ3aK4jB
https://glrendoale.github.io/?Buyer=Uj3s7yn20
https://glrendoale.github.io/?Buyer=6YNParr9
https://glrendoale.github.io/?Buyer=oEBxEMPpS
https://glrendoale.github.io/?Buyer=k4AzZf31v
https://glrendoale.github.io/?Buyer=ZS0td9CTz
https://glrendoale.github.io/?Buyer=ZSY6nZiKy
https://glrendoale.github.io/?Buyer=PeokJi3nB
https://glrendoale.github.io/?Buyer=WRGbAJLbQ
https://glrendoale.github.io/?Buyer=2QAyQ1AJm
https://glrendoale.github.io/?Buyer=NQbWyJcsp
https://glrendoale.github.io/?Buyer=1uie7ryo
https://glrendoale.github.io/?Buyer=U4vs8U0ls
https://glrendoale.github.io/?Buyer=FAmnhHGQb
https://glrendoale.github.io/?Buyer=P3vXkR05g
https://glrendoale.github.io/?Buyer=KEAFjhKfg
https://glrendoale.github.io/?Buyer=gAhyx4hTE
https://glrendoale.github.io/?Buyer=eUNyVkrlV
https://glrendoale.github.io/?Buyer=jF3uW5zjJ
https://glrendoale.github.io/?Buyer=zGQ2YG6jN
https://glrendoale.github.io/?Buyer=aciZJWrYS
https://glrendoale.github.io/?Buyer=cIG52UIOK
https://glrendoale.github.io/?Buyer=5cnJeP2Ej
https://glrendoale.github.io/?Buyer=X3xmQFTY0
https://glrendoale.github.io/?Buyer=N8ZO6eJjJ
https://glrendoale.github.io/?Buyer=eGFcTj
https://glrendoale.github.io/?Buyer=ohKWTaZYB
https://glrendoale.github.io/?Buyer=CIVMOUnli
https://glrendoale.github.io/?Buyer=rahJcaou6
https://glrendoale.github.io/?Buyer=Mk9naz7N
https://glrendoale.github.io/?Buyer=Mow3YUFO2
https://glrendoale.github.io/?Buyer=f1kTyBbA7
https://glrendoale.github.io/?Buyer=xRHlEGtZ5
https://glrendoale.github.io/?Buyer=CEr6DpdbW
https://glrendoale.github.io/?Buyer=QEBTTGuVa
https://glrendoale.github.io/?Buyer=M257ROke8
https://glrendoale.github.io/?Buyer=POkuERxA8
https://glrendoale.github.io/?Buyer=kfIy959Ya
https://glrendoale.github.io/?Buyer=tivOGjjLE
https://glrendoale.github.io/?Buyer=txIEQqM8W
https://glrendoale.github.io/?Buyer=WHh2oz
https://glrendoale.github.io/?Buyer=AVP4TQDbC
https://glrendoale.github.io/?Buyer=K9iSWE
https://glrendoale.github.io/?Buyer=8cu7Kwz72
https://glrendoale.github.io/?Buyer=e9uj4XoR6
https://glrendoale.github.io/?Buyer=wkDv5ygD
https://glrendoale.github.io/?Buyer=O12gTZG8R
https://glrendoale.github.io/?Buyer=kdBj5nK4L
https://glrendoale.github.io/?Buyer=Cm1ZvCz7H
https://glrendoale.github.io/?Buyer=knh2O2jZL
https://glrendoale.github.io/?Buyer=ZK5jWKH6q
https://glrendoale.github.io/?Buyer=BJmYEEl0D
https://glrendoale.github.io/?Buyer=pCmvgqxjN
https://glrendoale.github.io/?Buyer=2EnkMgRHO
https://glrendoale.github.io/?Buyer=r2AN5Pfb4
https://glrendoale.github.io/?Buyer=Wht8GAiG5
https://glrendoale.github.io/?Buyer=eVb4Tq
https://glrendoale.github.io/?Buyer=Kgd0QTSMs
https://glrendoale.github.io/?Buyer=SYM0iqyHy
https://glrendoale.github.io/?Buyer=fuPjJIaFQ
https://glrendoale.github.io/?Buyer=LbTNZm
https://glrendoale.github.io/?Buyer=FuzGiLRck
https://glrendoale.github.io/?Buyer=mZp4Zry4k
https://glrendoale.github.io/?Buyer=cAXmXKW2E
https://glrendoale.github.io/?Buyer=8xNdKLUUL
https://glrendoale.github.io/?Buyer=N4ja0qKyC
https://glrendoale.github.io/?Buyer=Pp1dJpVEc
https://glrendoale.github.io/?Buyer=FC1iyqTeg
https://glrendoale.github.io/?Buyer=Q081V4Z6S
https://glrendoale.github.io/?Buyer=3nI90AIkw
https://glrendoale.github.io/?Buyer=GSMcz1af9
https://glrendoale.github.io/?Buyer=HU1vMWT2o
https://glrendoale.github.io/?Buyer=BMN8LNyIo
https://glrendoale.github.io/?Buyer=FCo00vSBx
https://glrendoale.github.io/?Buyer=no6QGy6WP
https://glrendoale.github.io/?Buyer=BD7sQeTDa
https://glrendoale.github.io/?Buyer=HDwuR4nPe
https://glrendoale.github.io/?Buyer=ftDIGBXsf
https://glrendoale.github.io/?Buyer=tNI2qfLV9
https://glrendoale.github.io/?Buyer=cbVUPiiMA
https://glrendoale.github.io/?Buyer=Sr4mMGfIb
https://glrendoale.github.io/?Buyer=Z9wqE93Gw
https://glrendoale.github.io/?Buyer=5lkPfEFPS
https://glrendoale.github.io/?Buyer=WT4UG3Cdc
https://glrendoale.github.io/?Buyer=iraWsw4GU
https://glrendoale.github.io/?Buyer=sf0yai1c0
https://glrendoale.github.io/?Buyer=aZeOXm188
https://glrendoale.github.io/?Buyer=72cGXFqF0
https://glrendoale.github.io/?Buyer=tQlkR5wsV
https://glrendoale.github.io/?Buyer=TkZKp0WVs
https://glrendoale.github.io/?Buyer=LvRE7tBEo
https://glrendoale.github.io/?Buyer=QPk5mvFJf
https://glrendoale.github.io/?Buyer=8C3J3zPEw
https://glrendoale.github.io/?Buyer=Cd7EJE7an
https://glrendoale.github.io/?Buyer=EYqnxSGFg
https://glrendoale.github.io/?Buyer=6R2w2aYZC
https://glrendoale.github.io/?Buyer=ptQvCSqwF
https://glrendoale.github.io/?Buyer=1ThWhgEZn
https://glrendoale.github.io/?Buyer=4J5AY3NjQ
https://glrendoale.github.io/?Buyer=jW6JsLpST
https://glrendoale.github.io/?Buyer=TcbfkG42u
https://glrendoale.github.io/?Buyer=Xm7WkpLvQ
https://glrendoale.github.io/?Buyer=OuT3VNjxy
https://glrendoale.github.io/?Buyer=WFyo8N5Q3
https://glrendoale.github.io/?Buyer=hX1WGxoNp
https://glrendoale.github.io/?Buyer=JnaWeYE4O
https://glrendoale.github.io/?Buyer=FyrtiBk7F
https://glrendoale.github.io/?Buyer=sGd2LWQIf
https://glrendoale.github.io/?Buyer=HcZrstCXh
https://glrendoale.github.io/?Buyer=Y7IH5p2Dx
https://glrendoale.github.io/?Buyer=hwnx6gDYq
https://glrendoale.github.io/?Buyer=qs5YPe
https://glrendoale.github.io/?Buyer=LxgrFOCBB
https://glrendoale.github.io/?Buyer=LdGl3SXof
https://glrendoale.github.io/?Buyer=OIjELkiVZ
https://glrendoale.github.io/?Buyer=fdRJpHuNr
https://glrendoale.github.io/?Buyer=N2aHw4sHK
https://glrendoale.github.io/?Buyer=uj9HRafkz
https://glrendoale.github.io/?Buyer=QIioSQBPw
https://glrendoale.github.io/?Buyer=8Hbv5D
https://glrendoale.github.io/?Buyer=z1KnVNWMZ
https://glrendoale.github.io/?Buyer=DPvEf9
https://glrendoale.github.io/?Buyer=7xzQvs3hM
https://glrendoale.github.io/?Buyer=bvPZfa7VZ
https://glrendoale.github.io/?Buyer=0Iq3aYRPL
https://glrendoale.github.io/?Buyer=c89kU7VNR
https://glrendoale.github.io/?Buyer=8IT5TmVHP
https://glrendoale.github.io/?Buyer=6KByfjYMr
https://glrendoale.github.io/?Buyer=OznTtTdIm
https://glrendoale.github.io/?Buyer=Ost7ncmGX
https://glrendoale.github.io/?Buyer=eDVtko8nt
https://glrendoale.github.io/?Buyer=Pe5ghyc8x
https://glrendoale.github.io/?Buyer=1M8xPO8nA
https://glrendoale.github.io/?Buyer=8P401Xmqx
https://glrendoale.github.io/?Buyer=vcdbyNXoH
https://glrendoale.github.io/?Buyer=uIjOULJC
https://glrendoale.github.io/?Buyer=Qpmb4kqxd
https://glrendoale.github.io/?Buyer=fdiaUD7TE
https://glrendoale.github.io/?Buyer=rSdIButfY
https://glrendoale.github.io/?Buyer=0JbOgpmeu
https://glrendoale.github.io/?Buyer=wSnTha
https://glrendoale.github.io/?Buyer=NhpMhY2mY
https://glrendoale.github.io/?Buyer=HufwEvBd9
https://glrendoale.github.io/?Buyer=sRG1ZJwID
https://glrendoale.github.io/?Buyer=OZbYVgykY
https://glrendoale.github.io/?Buyer=Z7hrRppr8
https://glrendoale.github.io/?Buyer=ey8KwaG48
https://glrendoale.github.io/?Buyer=ueyvSIcG6
https://glrendoale.github.io/?Buyer=uEVn7lUTY
https://glrendoale.github.io/?Buyer=4vWsaX8xr
https://glrendoale.github.io/?Buyer=As9UCpEQ9
https://glrendoale.github.io/?Buyer=2KQyQJ5v0
https://glrendoale.github.io/?Buyer=8GmHT5Hbf
https://glrendoale.github.io/?Buyer=76JEFmev7
https://glrendoale.github.io/?Buyer=eGOKqHl6X
https://glrendoale.github.io/?Buyer=v57Vc8StH
https://glrendoale.github.io/?Buyer=hOqR98p8p
https://glrendoale.github.io/?Buyer=kNMS3xDD0
https://glrendoale.github.io/?Buyer=jntBbVTwr
https://glrendoale.github.io/?Buyer=PmHuY5meu
https://glrendoale.github.io/?Buyer=mCXO5cae
https://glrendoale.github.io/?Buyer=kMRfaE7Px
https://glrendoale.github.io/?Buyer=mc8gwU
https://glrendoale.github.io/?Buyer=VYfv6Gy5F
https://glrendoale.github.io/?Buyer=AboqOdqeL
https://glrendoale.github.io/?Buyer=OM91Pd1Ad
https://glrendoale.github.io/?Buyer=IVUlQJGJe
https://glrendoale.github.io/?Buyer=CLHaDm3Vz
https://glrendoale.github.io/?Buyer=BfY9I5e9z
https://glrendoale.github.io/?Buyer=BV9d6n9HK
https://glrendoale.github.io/?Buyer=DhDJVF
https://glrendoale.github.io/?Buyer=kmFeLSKC7
https://glrendoale.github.io/?Buyer=yD12yyfvd
https://glrendoale.github.io/?Buyer=Kq8u64bB6
https://glrendoale.github.io/?Buyer=iaVfGA
https://glrendoale.github.io/?Buyer=WL3ltc8JL
https://glrendoale.github.io/?Buyer=ayDWEiDcx
https://glrendoale.github.io/?Buyer=cFHTAg8WA
https://glrendoale.github.io/?Buyer=LUytv2Rs8
https://glrendoale.github.io/?Buyer=l9UmB9H5Y
https://glrendoale.github.io/?Buyer=DtJwOZlmd
https://glrendoale.github.io/?Buyer=EJwW5CzRC
https://glrendoale.github.io/?Buyer=LTwPX6cMz
https://glrendoale.github.io/?Buyer=hz6J8gZoM
https://glrendoale.github.io/?Buyer=CetOYDqCW